<?xml version="1.0" encoding="UTF-8"?>

<!-- generated on 2021-11-20 15:05:56 by Eclipse SUMO netconvert Version 1.10.0
<configuration xmlns:xsi="http://www.w3.org/2001/XMLSchema-instance" xsi:noNamespaceSchemaLocation="http://sumo.dlr.de/xsd/netconvertConfiguration.xsd">

    <input>
        <osm-files value="map.osm"/>
    </input>

    <output>
        <output-file value="saltlake.net.xml"/>
    </output>

    <projection>
        <proj.utm value="true"/>
    </projection>

    <report>
        <aggregate-warnings value="5"/>
    </report>

</configuration>
-->

<net version="1.9" junctionCornerDetail="5" limitTurnSpeed="5.50" xmlns:xsi="http://www.w3.org/2001/XMLSchema-instance" xsi:noNamespaceSchemaLocation="http://sumo.dlr.de/xsd/net_file.xsd">

    <location netOffset="-645940.10,-2494208.34" convBoundary="0.00,0.00,2844.10,3655.39" origBoundary="88.419420,22.548028,88.446938,22.581193" projParameter="+proj=utm +zone=45 +ellps=WGS84 +datum=WGS84 +units=m +no_defs"/>

    <type id="highway.bridleway" priority="1" numLanes="1" speed="2.78" allow="pedestrian" oneway="1" width="2.00"/>
    <type id="highway.bus_guideway" priority="1" numLanes="1" speed="27.78" allow="bus" oneway="1"/>
    <type id="highway.cycleway" priority="1" numLanes="1" speed="8.33" allow="bicycle" oneway="0" width="1.00"/>
    <type id="highway.footway" priority="1" numLanes="1" speed="2.78" allow="pedestrian" oneway="1" width="2.00"/>
    <type id="highway.ford" priority="1" numLanes="1" speed="2.78" allow="army" oneway="0"/>
    <type id="highway.living_street" priority="2" numLanes="1" speed="2.78" disallow="tram rail_urban rail rail_electric rail_fast ship" oneway="0"/>
    <type id="highway.motorway" priority="14" numLanes="2" speed="39.44" allow="private emergency authority army vip passenger hov taxi bus coach delivery truck trailer motorcycle evehicle custom1 custom2" oneway="1"/>
    <type id="highway.motorway_link" priority="9" numLanes="1" speed="22.22" allow="private emergency authority army vip passenger hov taxi bus coach delivery truck trailer motorcycle evehicle custom1 custom2" oneway="1"/>
    <type id="highway.path" priority="1" numLanes="1" speed="2.78" allow="pedestrian bicycle" oneway="0" width="2.00"/>
    <type id="highway.pedestrian" priority="1" numLanes="1" speed="2.78" allow="pedestrian" oneway="1" width="2.00"/>
    <type id="highway.primary" priority="12" numLanes="2" speed="27.78" disallow="tram rail_urban rail rail_electric rail_fast ship" oneway="0"/>
    <type id="highway.primary_link" priority="7" numLanes="1" speed="22.22" disallow="tram rail_urban rail rail_electric rail_fast ship" oneway="0"/>
    <type id="highway.raceway" priority="15" numLanes="2" speed="83.33" allow="vip" oneway="0"/>
    <type id="highway.residential" priority="3" numLanes="1" speed="13.89" disallow="tram rail_urban rail rail_electric rail_fast ship" oneway="0"/>
    <type id="highway.secondary" priority="11" numLanes="1" speed="27.78" disallow="tram rail_urban rail rail_electric rail_fast ship" oneway="0"/>
    <type id="highway.secondary_link" priority="6" numLanes="1" speed="22.22" disallow="tram rail_urban rail rail_electric rail_fast ship" oneway="0"/>
    <type id="highway.service" priority="1" numLanes="1" speed="5.56" allow="pedestrian delivery bicycle" oneway="0"/>
    <type id="highway.stairs" priority="1" numLanes="1" speed="1.39" allow="pedestrian" oneway="1" width="2.00"/>
    <type id="highway.step" priority="1" numLanes="1" speed="1.39" allow="pedestrian" oneway="1" width="2.00"/>
    <type id="highway.steps" priority="1" numLanes="1" speed="1.39" allow="pedestrian" oneway="1" width="2.00"/>
    <type id="highway.tertiary" priority="10" numLanes="1" speed="22.22" disallow="tram rail_urban rail rail_electric rail_fast ship" oneway="0"/>
    <type id="highway.tertiary_link" priority="5" numLanes="1" speed="22.22" disallow="tram rail_urban rail rail_electric rail_fast ship" oneway="0"/>
    <type id="highway.track" priority="1" numLanes="1" speed="5.56" allow="pedestrian motorcycle moped bicycle" oneway="0"/>
    <type id="highway.trunk" priority="13" numLanes="2" speed="27.78" disallow="pedestrian bicycle tram rail_urban rail rail_electric rail_fast ship" oneway="0"/>
    <type id="highway.trunk_link" priority="8" numLanes="1" speed="22.22" disallow="pedestrian bicycle tram rail_urban rail rail_electric rail_fast ship" oneway="0"/>
    <type id="highway.unclassified" priority="4" numLanes="1" speed="13.89" disallow="tram rail_urban rail rail_electric rail_fast ship" oneway="0"/>
    <type id="highway.unsurfaced" priority="1" numLanes="1" speed="8.33" disallow="tram rail_urban rail rail_electric rail_fast ship" oneway="0"/>
    <type id="railway.highspeed" priority="21" numLanes="1" speed="69.44" allow="rail_fast" oneway="1"/>
    <type id="railway.light_rail" priority="19" numLanes="1" speed="27.78" allow="rail_urban" oneway="1"/>
    <type id="railway.preserved" priority="16" numLanes="1" speed="27.78" allow="rail" oneway="1"/>
    <type id="railway.rail" priority="20" numLanes="1" speed="44.44" allow="rail" oneway="1"/>
    <type id="railway.subway" priority="18" numLanes="1" speed="27.78" allow="rail_urban" oneway="1"/>
    <type id="railway.tram" priority="17" numLanes="1" speed="13.89" allow="tram" oneway="1"/>

    <edge id=":1307078218_0" function="internal">
        <lane id=":1307078218_0_0" index="0" disallow="tram rail_urban rail rail_electric rail_fast ship" speed="3.65" length="4.67" shape="2824.25,0.09 2824.98,-1.15 2825.76,-1.60 2826.58,-1.24 2827.45,-0.09"/>
    </edge>
    <edge id=":1664444357_0" function="internal">
        <lane id=":1664444357_0_0" index="0" disallow="tram rail_urban rail rail_electric rail_fast ship" speed="6.14" length="7.67" shape="891.98,2406.76 890.91,2405.42 889.42,2404.79 887.53,2404.88 885.22,2405.69"/>
    </edge>
    <edge id=":1664444357_1" function="internal">
        <lane id=":1664444357_1_0" index="0" disallow="tram rail_urban rail rail_electric rail_fast ship" speed="3.65" length="4.67" shape="891.98,2406.76 892.15,2405.32 892.67,2404.60 893.57,2404.59 894.83,2405.30"/>
    </edge>
    <edge id=":1664444357_2" function="internal">
        <lane id=":1664444357_2_0" index="0" disallow="tram rail_urban rail rail_electric rail_fast ship" speed="5.98" length="7.56" shape="898.18,2399.50 896.08,2400.80 894.82,2402.19 894.40,2403.69 894.83,2405.30"/>
    </edge>
    <edge id=":1664444357_3" function="internal">
        <lane id=":1664444357_3_0" index="0" disallow="tram rail_urban rail rail_electric rail_fast ship" speed="27.78" length="14.32" shape="898.18,2399.50 885.22,2405.69"/>
        <lane id=":1664444357_3_1" index="1" disallow="tram rail_urban rail rail_electric rail_fast ship" speed="27.78" length="14.32" shape="896.77,2396.63 883.88,2402.78"/>
    </edge>
    <edge id=":1664444358_0" function="internal">
        <lane id=":1664444358_0_0" index="0" disallow="tram rail_urban rail rail_electric rail_fast ship" speed="6.09" length="7.69" shape="894.92,2405.47 896.00,2406.82 897.49,2407.43 899.38,2407.31 901.68,2406.45"/>
    </edge>
    <edge id=":1664444358_1" function="internal">
        <lane id=":1664444358_1_0" index="0" disallow="tram rail_urban rail rail_electric rail_fast ship" speed="3.65" length="4.67" shape="894.92,2405.47 894.76,2406.91 894.23,2407.63 893.33,2407.64 892.07,2406.93"/>
    </edge>
    <edge id=":1664444358_2" function="internal">
        <lane id=":1664444358_2_0" index="0" disallow="tram rail_urban rail rail_electric rail_fast ship" speed="5.94" length="7.58" shape="888.63,2412.65 890.78,2411.40 892.07,2410.04 892.50,2408.55 892.07,2406.93"/>
    </edge>
    <edge id=":1664444358_3" function="internal">
        <lane id=":1664444358_3_0" index="0" disallow="tram rail_urban rail rail_electric rail_fast ship" speed="27.78" length="14.49" shape="888.63,2412.65 901.68,2406.45"/>
        <lane id=":1664444358_3_1" index="1" disallow="tram rail_urban rail rail_electric rail_fast ship" speed="27.78" length="14.49" shape="889.97,2415.56 903.09,2409.32"/>
    </edge>
    <edge id=":1664471825_0" function="internal">
        <lane id=":1664471825_0_0" index="0" disallow="tram rail_urban rail rail_electric rail_fast ship" speed="27.78" length="0.30" shape="1366.44,2987.04 1366.18,2987.17"/>
        <lane id=":1664471825_0_1" index="1" disallow="tram rail_urban rail rail_electric rail_fast ship" speed="27.78" length="0.30" shape="1365.07,2984.15 1364.79,2984.28"/>
    </edge>
    <edge id=":1664471841_0" function="internal">
        <lane id=":1664471841_0_0" index="0" disallow="tram rail_urban rail rail_electric rail_fast ship" speed="6.14" length="7.83" shape="1323.19,3012.43 1322.08,3011.00 1320.58,3010.32 1318.67,3010.40 1316.35,3011.23"/>
    </edge>
    <edge id=":1664471841_1" function="internal">
        <lane id=":1664471841_1_0" index="0" disallow="tram rail_urban rail rail_electric rail_fast ship" speed="3.65" length="4.67" shape="1323.19,3012.43 1323.37,3011.00 1323.90,3010.29 1324.80,3010.29 1326.05,3011.00"/>
    </edge>
    <edge id=":1664471841_2" function="internal">
        <lane id=":1664471841_2_0" index="0" disallow="tram rail_urban rail rail_electric rail_fast ship" speed="6.06" length="7.77" shape="1329.32,3004.98 1327.22,3006.27 1325.97,3007.71 1325.59,3009.28 1326.05,3011.00"/>
    </edge>
    <edge id=":1664471841_3" function="internal">
        <lane id=":1664471841_3_0" index="0" disallow="tram rail_urban rail rail_electric rail_fast ship" speed="27.78" length="14.39" shape="1329.32,3004.98 1316.35,3011.23"/>
        <lane id=":1664471841_3_1" index="1" disallow="tram rail_urban rail rail_electric rail_fast ship" speed="27.78" length="14.39" shape="1327.93,3002.10 1314.97,3008.35"/>
    </edge>
    <edge id=":1664471846_0" function="internal">
        <lane id=":1664471846_0_0" index="0" disallow="tram rail_urban rail rail_electric rail_fast ship" speed="6.10" length="7.81" shape="1326.14,3011.18 1327.24,3012.60 1328.75,3013.25 1330.65,3013.15 1332.95,3012.28"/>
    </edge>
    <edge id=":1664471846_1" function="internal">
        <lane id=":1664471846_1_0" index="0" disallow="tram rail_urban rail rail_electric rail_fast ship" speed="3.65" length="4.67" shape="1326.14,3011.18 1325.96,3012.61 1325.43,3013.33 1324.53,3013.33 1323.28,3012.61"/>
    </edge>
    <edge id=":1664471846_2" function="internal">
        <lane id=":1664471846_2_0" index="0" disallow="tram rail_urban rail rail_electric rail_fast ship" speed="6.06" length="7.77" shape="1320.00,3018.63 1322.11,3017.34 1323.36,3015.91 1323.75,3014.33 1323.28,3012.61"/>
    </edge>
    <edge id=":1664471846_3" function="internal">
        <lane id=":1664471846_3_0" index="0" disallow="tram rail_urban rail rail_electric rail_fast ship" speed="27.78" length="14.45" shape="1320.00,3018.63 1332.95,3012.28"/>
        <lane id=":1664471846_3_1" index="1" disallow="tram rail_urban rail rail_electric rail_fast ship" speed="27.78" length="14.45" shape="1321.39,3021.51 1334.38,3015.14"/>
    </edge>
    <edge id=":1664471918_0" function="internal">
        <lane id=":1664471918_0_0" index="0" disallow="tram rail_urban rail rail_electric rail_fast ship" speed="27.78" length="9.41" shape="842.57,3245.78 835.38,3251.74"/>
        <lane id=":1664471918_0_1" index="1" disallow="tram rail_urban rail rail_electric rail_fast ship" speed="27.78" length="9.41" shape="840.57,3243.28 833.27,3249.33"/>
    </edge>
    <edge id=":1664471918_2" function="internal">
        <lane id=":1664471918_2_0" index="0" allow="pedestrian delivery bicycle" speed="5.90" length="8.39" shape="840.57,3243.28 838.15,3244.88 836.15,3245.50 834.58,3245.13 833.44,3243.77"/>
    </edge>
    <edge id=":1664471918_3" function="internal">
        <lane id=":1664471918_3_0" index="0" allow="pedestrian delivery bicycle" speed="6.87" length="8.19" shape="836.30,3242.33 836.68,3243.90 836.30,3245.59 835.16,3247.40 833.27,3249.33"/>
    </edge>
    <edge id=":1664471918_4" function="internal">
        <lane id=":1664471918_4_0" index="0" allow="pedestrian delivery bicycle" speed="3.65" length="4.67" shape="836.30,3242.33 836.12,3243.76 835.59,3244.48 834.69,3244.48 833.44,3243.77"/>
    </edge>
    <edge id=":1664487448_0" function="internal">
        <lane id=":1664487448_0_0" index="0" disallow="tram rail_urban rail rail_electric rail_fast ship" speed="22.22" length="0.30" shape="1808.89,2773.59 1808.62,2773.72"/>
    </edge>
    <edge id=":1664487449_0" function="internal">
        <lane id=":1664487449_0_0" index="0" allow="pedestrian delivery bicycle" speed="6.00" length="7.98" shape="1814.67,2788.47 1814.25,2786.98 1814.77,2785.51 1816.24,2784.05 1818.65,2782.61"/>
    </edge>
    <edge id=":1664487449_1" function="internal">
        <lane id=":1664487449_1_0" index="0" allow="pedestrian delivery bicycle" speed="3.65" length="4.67" shape="1814.67,2788.47 1814.74,2787.02 1815.22,2786.27 1816.11,2786.20 1817.42,2786.82"/>
    </edge>
    <edge id=":1664487449_2" function="internal">
        <lane id=":1664487449_2_0" index="0" disallow="tram rail_urban rail rail_electric rail_fast ship" speed="22.22" length="9.39" shape="1810.19,2786.68 1818.65,2782.61"/>
    </edge>
    <edge id=":1664487449_3" function="internal">
        <lane id=":1664487449_3_0" index="0" allow="pedestrian delivery bicycle" speed="6.36" length="7.89" shape="1810.19,2786.68 1812.74,2785.72 1814.79,2785.42 1816.35,2785.78 1817.42,2786.82"/>
    </edge>
    <edge id=":1664487461_0" function="internal">
        <lane id=":1664487461_0_0" index="0" disallow="tram rail_urban rail rail_electric rail_fast ship" speed="6.77" length="9.81" shape="1467.33,2944.56 1468.89,2946.99 1470.72,2948.38 1472.83,2948.75 1475.22,2948.08"/>
    </edge>
    <edge id=":1664487461_1" function="internal">
        <lane id=":1664487461_1_0" index="0" disallow="tram rail_urban rail rail_electric rail_fast ship" speed="27.78" length="12.36" shape="1467.33,2944.56 1472.70,2955.68"/>
        <lane id=":1664487461_1_1" index="1" disallow="tram rail_urban rail rail_electric rail_fast ship" speed="27.78" length="12.36" shape="1464.45,2945.94 1469.82,2957.08"/>
    </edge>
    <edge id=":1664487461_3" function="internal">
        <lane id=":1664487461_3_0" index="0" disallow="tram rail_urban rail rail_electric rail_fast ship" speed="25.00" length="13.03" shape="1462.57,2951.03 1466.56,2950.20 1469.56,2949.75 1472.22,2949.21 1475.22,2948.08"/>
    </edge>
    <edge id=":1664487461_4" function="internal">
        <lane id=":1664487461_4_0" index="0" disallow="tram rail_urban rail rail_electric rail_fast ship" speed="6.57" length="3.33" shape="1463.35,2954.13 1465.44,2953.89 1466.64,2954.17"/>
    </edge>
    <edge id=":1664487461_5" function="internal">
        <lane id=":1664487461_5_0" index="0" disallow="tram rail_urban rail rail_electric rail_fast ship" speed="6.57" length="4.46" shape="1466.64,2954.17 1467.21,2954.30 1468.67,2955.36 1469.82,2957.08"/>
    </edge>
    <edge id=":1702498138_0" function="internal">
        <lane id=":1702498138_0_0" index="0" disallow="tram rail_urban rail rail_electric rail_fast ship" speed="6.45" length="8.82" shape="2007.89,2953.46 2006.55,2951.50 2004.88,2950.45 2002.87,2950.30 2000.52,2951.06"/>
    </edge>
    <edge id=":1702498138_1" function="internal">
        <lane id=":1702498138_1_0" index="0" disallow="tram rail_urban rail rail_electric rail_fast ship" speed="22.22" length="10.76" shape="2007.89,2953.46 2006.55,2950.67 2005.62,2948.58 2004.78,2946.44 2003.73,2943.54"/>
    </edge>
    <edge id=":1702498138_2" function="internal">
        <lane id=":1702498138_2_0" index="0" disallow="tram rail_urban rail rail_electric rail_fast ship" speed="3.65" length="2.34" shape="2007.89,2953.46 2008.08,2952.03 2008.63,2951.32"/>
    </edge>
    <edge id=":1702498138_6" function="internal">
        <lane id=":1702498138_6_0" index="0" disallow="tram rail_urban rail rail_electric rail_fast ship" speed="3.65" length="2.34" shape="2008.63,2951.32 2009.52,2951.33 2010.77,2952.06"/>
    </edge>
    <edge id=":1702498138_3" function="internal">
        <lane id=":1702498138_3_0" index="0" disallow="tram rail_urban rail rail_electric rail_fast ship" speed="22.22" length="10.41" shape="2006.75,2942.47 2007.78,2945.32 2008.57,2947.34 2009.45,2949.33 2010.77,2952.06"/>
    </edge>
    <edge id=":1702498138_4" function="internal">
        <lane id=":1702498138_4_0" index="0" disallow="tram rail_urban rail rail_electric rail_fast ship" speed="7.60" length="3.85" shape="2006.75,2942.47 2007.00,2944.80 2006.40,2946.18"/>
    </edge>
    <edge id=":1702498138_5" function="internal">
        <lane id=":1702498138_5_0" index="0" disallow="tram rail_urban rail rail_electric rail_fast ship" speed="3.65" length="2.34" shape="2006.75,2942.47 2006.40,2943.87 2005.78,2944.51"/>
    </edge>
    <edge id=":1702498138_7" function="internal">
        <lane id=":1702498138_7_0" index="0" disallow="tram rail_urban rail rail_electric rail_fast ship" speed="7.60" length="7.79" shape="2006.40,2946.18 2006.04,2947.01 2003.88,2949.09 2000.52,2951.06"/>
    </edge>
    <edge id=":1702498138_8" function="internal">
        <lane id=":1702498138_8_0" index="0" disallow="tram rail_urban rail rail_electric rail_fast ship" speed="3.65" length="2.34" shape="2005.78,2944.51 2004.89,2944.40 2003.73,2943.54"/>
    </edge>
    <edge id=":1702498140_0" function="internal">
        <lane id=":1702498140_0_0" index="0" disallow="tram rail_urban rail rail_electric rail_fast ship" speed="22.22" length="10.88" shape="2013.01,2963.31 2007.99,2953.66"/>
    </edge>
    <edge id=":1702498140_1" function="internal">
        <lane id=":1702498140_1_0" index="0" disallow="tram rail_urban rail rail_electric rail_fast ship" speed="3.65" length="2.34" shape="2013.01,2963.31 2013.13,2961.87 2013.63,2961.13"/>
    </edge>
    <edge id=":1702498140_6" function="internal">
        <lane id=":1702498140_6_0" index="0" disallow="tram rail_urban rail rail_electric rail_fast ship" speed="3.65" length="2.34" shape="2013.63,2961.13 2014.52,2961.09 2015.81,2961.75"/>
    </edge>
    <edge id=":1702498140_2" function="internal">
        <lane id=":1702498140_2_0" index="0" disallow="tram rail_urban rail rail_electric rail_fast ship" speed="22.22" length="10.69" shape="2010.87,2952.27 2015.81,2961.75"/>
    </edge>
    <edge id=":1702498140_3" function="internal">
        <lane id=":1702498140_3_0" index="0" disallow="tram rail_urban rail rail_electric rail_fast ship" speed="3.65" length="2.34" shape="2010.87,2952.27 2010.67,2953.70 2010.13,2954.40"/>
    </edge>
    <edge id=":1702498140_7" function="internal">
        <lane id=":1702498140_7_0" index="0" disallow="tram rail_urban rail rail_electric rail_fast ship" speed="3.65" length="2.34" shape="2010.13,2954.40 2009.23,2954.39 2007.99,2953.66"/>
    </edge>
    <edge id=":1702498140_4" function="internal">
        <lane id=":1702498140_4_0" index="0" disallow="tram rail_urban rail rail_electric rail_fast ship" speed="6.44" length="8.85" shape="2005.28,2960.93 2007.34,2959.56 2008.48,2957.90 2008.70,2955.93 2007.99,2953.66"/>
    </edge>
    <edge id=":1702498140_5" function="internal">
        <lane id=":1702498140_5_0" index="0" disallow="tram rail_urban rail rail_electric rail_fast ship" speed="7.48" length="11.70" shape="2005.28,2960.93 2008.92,2959.55 2011.88,2959.23 2014.18,2959.96 2015.81,2961.75"/>
    </edge>
    <edge id=":1702511432_0" function="internal">
        <lane id=":1702511432_0_0" index="0" allow="pedestrian motorcycle moped bicycle" speed="3.93" length="2.17" shape="1991.34,2054.14 1990.78,2054.27 1990.35,2054.54 1990.06,2054.96 1989.91,2055.52"/>
    </edge>
    <edge id=":1702511432_1" function="internal">
        <lane id=":1702511432_1_0" index="0" allow="pedestrian motorcycle moped bicycle" speed="5.56" length="6.51" shape="1986.74,2055.09 1987.20,2053.41 1988.07,2052.17 1989.35,2051.35 1991.04,2050.95"/>
    </edge>
    <edge id=":1702511450_0" function="internal">
        <lane id=":1702511450_0_0" index="0" allow="pedestrian motorcycle moped bicycle" speed="13.89" length="0.18" shape="1719.69,2081.65 1719.63,2081.66 1719.60,2081.66 1719.56,2081.66 1719.51,2081.67"/>
    </edge>
    <edge id=":1702511450_1" function="internal">
        <lane id=":1702511450_1_0" index="0" allow="pedestrian motorcycle moped bicycle" speed="13.89" length="0.54" shape="1718.95,2078.52 1719.11,2078.50 1719.22,2078.48 1719.33,2078.47 1719.49,2078.46"/>
    </edge>
    <edge id=":1702511450_2" function="internal">
        <lane id=":1702511450_2_0" index="0" disallow="tram rail_urban rail rail_electric rail_fast ship" speed="3.65" length="2.34" shape="1718.95,2078.52 1720.27,2079.10 1720.80,2079.82"/>
    </edge>
    <edge id=":1702511450_3" function="internal">
        <lane id=":1702511450_3_0" index="0" disallow="tram rail_urban rail rail_electric rail_fast ship" speed="3.65" length="2.34" shape="1720.80,2079.82 1720.55,2080.68 1719.51,2081.67"/>
    </edge>
    <edge id=":1702511455_0" function="internal">
        <lane id=":1702511455_0_0" index="0" disallow="tram rail_urban rail rail_electric rail_fast ship" speed="14.65" length="15.29" shape="1706.29,2098.17 1702.48,2098.81 1698.66,2099.69 1695.13,2101.11 1692.19,2103.35"/>
    </edge>
    <edge id=":1702511455_1" function="internal">
        <lane id=":1702511455_1_0" index="0" disallow="tram rail_urban rail rail_electric rail_fast ship" speed="7.55" length="21.13" shape="1706.29,2098.17 1699.20,2098.66 1695.81,2097.16 1696.12,2093.66 1700.12,2088.16"/>
    </edge>
    <edge id=":1702511455_2" function="internal">
        <lane id=":1702511455_2_0" index="0" disallow="tram rail_urban rail rail_electric rail_fast ship" speed="3.65" length="4.67" shape="1706.29,2098.17 1704.98,2097.58 1704.45,2096.85 1704.71,2096.00 1705.77,2095.01"/>
    </edge>
    <edge id=":1702511455_3" function="internal">
        <lane id=":1702511455_3_0" index="0" disallow="tram rail_urban rail rail_electric rail_fast ship" speed="5.52" length="10.47" shape="1702.74,2090.03 1700.75,2092.76 1700.59,2094.50 1702.26,2095.25 1705.77,2095.01"/>
    </edge>
    <edge id=":1702511455_4" function="internal">
        <lane id=":1702511455_4_0" index="0" disallow="tram rail_urban rail rail_electric rail_fast ship" speed="22.22" length="16.99" shape="1702.74,2090.03 1692.19,2103.35"/>
    </edge>
    <edge id=":1702511455_5" function="internal">
        <lane id=":1702511455_5_0" index="0" disallow="tram rail_urban rail rail_electric rail_fast ship" speed="3.66" length="2.35" shape="1702.74,2090.03 1701.38,2090.55 1700.49,2090.41"/>
    </edge>
    <edge id=":1702511455_9" function="internal">
        <lane id=":1702511455_9_0" index="0" disallow="tram rail_urban rail rail_electric rail_fast ship" speed="3.66" length="2.35" shape="1700.49,2090.41 1700.07,2089.61 1700.12,2088.16"/>
    </edge>
    <edge id=":1702511455_6" function="internal">
        <lane id=":1702511455_6_0" index="0" disallow="tram rail_urban rail rail_electric rail_fast ship" speed="22.22" length="16.59" shape="1689.84,2101.19 1700.12,2088.16"/>
    </edge>
    <edge id=":1702511455_7" function="internal">
        <lane id=":1702511455_7_0" index="0" disallow="tram rail_urban rail rail_electric rail_fast ship" speed="15.57" length="5.17" shape="1689.84,2101.19 1693.06,2098.79 1694.12,2098.34"/>
    </edge>
    <edge id=":1702511455_8" function="internal">
        <lane id=":1702511455_8_0" index="0" disallow="tram rail_urban rail rail_electric rail_fast ship" speed="3.65" length="2.20" shape="1689.84,2101.19 1691.24,2100.85 1691.97,2101.06"/>
    </edge>
    <edge id=":1702511455_10" function="internal">
        <lane id=":1702511455_10_0" index="0" disallow="tram rail_urban rail rail_electric rail_fast ship" speed="15.57" length="12.15" shape="1694.12,2098.34 1697.22,2097.03 1701.67,2095.81 1705.77,2095.01"/>
    </edge>
    <edge id=":1702511455_11" function="internal">
        <lane id=":1702511455_11_0" index="0" disallow="tram rail_urban rail rail_electric rail_fast ship" speed="3.65" length="2.47" shape="1691.97,2101.06 1692.10,2101.09 1692.41,2101.93 1692.19,2103.35"/>
    </edge>
    <edge id=":1702511465_0" function="internal">
        <lane id=":1702511465_0_0" index="0" disallow="tram rail_urban rail rail_electric rail_fast ship" speed="22.22" length="12.64" shape="1689.40,2111.43 1686.02,2111.47 1683.08,2111.53 1680.15,2111.68 1676.78,2111.97"/>
    </edge>
    <edge id=":1702511465_1" function="internal">
        <lane id=":1702511465_1_0" index="0" disallow="tram rail_urban rail rail_electric rail_fast ship" speed="5.94" length="12.17" shape="1689.40,2111.43 1685.18,2111.09 1683.17,2109.95 1683.39,2108.00 1685.82,2105.26"/>
    </edge>
    <edge id=":1702511465_2" function="internal">
        <lane id=":1702511465_2_0" index="0" disallow="tram rail_urban rail rail_electric rail_fast ship" speed="13.75" length="12.23" shape="1687.94,2107.65 1685.32,2109.66 1682.82,2110.87 1680.10,2111.55 1676.78,2111.97"/>
    </edge>
    <edge id=":1702511465_3" function="internal">
        <lane id=":1702511465_3_0" index="0" disallow="tram rail_urban rail rail_electric rail_fast ship" speed="3.65" length="2.12" shape="1687.94,2107.65 1686.51,2107.85 1685.88,2107.60"/>
    </edge>
    <edge id=":1702511465_4" function="internal">
        <lane id=":1702511465_4_0" index="0" disallow="tram rail_urban rail rail_electric rail_fast ship" speed="3.65" length="2.55" shape="1685.88,2107.60 1685.68,2107.52 1685.45,2106.65 1685.82,2105.26"/>
    </edge>
    <edge id=":1702511474_0" function="internal">
        <lane id=":1702511474_0_0" index="0" disallow="tram rail_urban rail rail_electric rail_fast ship" speed="6.17" length="7.39" shape="1392.70,2177.00 1391.75,2176.11 1390.29,2175.83 1388.34,2176.16 1385.89,2177.10"/>
    </edge>
    <edge id=":1702511474_1" function="internal">
        <lane id=":1702511474_1_0" index="0" disallow="tram rail_urban rail rail_electric rail_fast ship" speed="10.92" length="12.99" shape="1392.70,2177.00 1390.27,2173.27 1387.97,2170.52 1385.82,2168.75 1383.80,2167.97"/>
    </edge>
    <edge id=":1702511474_2" function="internal">
        <lane id=":1702511474_2_0" index="0" disallow="tram rail_urban rail rail_electric rail_fast ship" speed="3.65" length="4.67" shape="1392.70,2177.00 1392.78,2175.56 1393.26,2174.81 1394.16,2174.75 1395.46,2175.37"/>
    </edge>
    <edge id=":1702511474_3" function="internal">
        <lane id=":1702511474_3_0" index="0" disallow="tram rail_urban rail rail_electric rail_fast ship" speed="6.16" length="10.26" shape="1397.71,2167.58 1395.21,2168.45 1394.01,2170.04 1394.09,2172.34 1395.46,2175.37"/>
    </edge>
    <edge id=":1702511474_4" function="internal">
        <lane id=":1702511474_4_0" index="0" disallow="tram rail_urban rail rail_electric rail_fast ship" speed="22.22" length="15.35" shape="1397.71,2167.58 1394.42,2169.11 1391.65,2171.85 1388.96,2174.84 1385.89,2177.10"/>
    </edge>
    <edge id=":1702511474_5" function="internal">
        <lane id=":1702511474_5_0" index="0" disallow="tram rail_urban rail rail_electric rail_fast ship" speed="22.22" length="13.97" shape="1397.71,2167.58 1394.15,2168.08 1390.76,2168.36 1387.37,2168.34 1383.80,2167.97"/>
    </edge>
    <edge id=":1702511491_0" function="internal">
        <lane id=":1702511491_0_0" index="0" disallow="tram rail_urban rail rail_electric rail_fast ship" speed="5.45" length="6.00" shape="1148.22,2283.62 1147.31,2282.23 1146.18,2281.46 1144.84,2281.31 1143.28,2281.78"/>
        <lane id=":1702511491_0_1" index="1" disallow="tram rail_urban rail rail_electric rail_fast ship" speed="7.17" length="11.14" shape="1151.11,2282.25 1149.42,2279.69 1147.33,2278.27 1144.83,2278.00 1141.93,2278.88"/>
    </edge>
    <edge id=":1702511491_2" function="internal">
        <lane id=":1702511491_2_0" index="0" disallow="tram rail_urban rail rail_electric rail_fast ship" speed="25.00" length="12.57" shape="1153.88,2275.05 1150.90,2276.17 1148.34,2276.77 1145.56,2277.46 1141.93,2278.88"/>
    </edge>
    <edge id=":1702511493_0" function="internal">
        <lane id=":1702511493_0_0" index="0" disallow="tram rail_urban rail rail_electric rail_fast ship" speed="6.99" length="10.60" shape="1158.57,2284.94 1156.48,2286.43 1155.43,2288.45 1155.42,2290.98 1156.47,2294.03"/>
    </edge>
    <edge id=":1702511493_1" function="internal">
        <lane id=":1702511493_1_0" index="0" disallow="tram rail_urban rail rail_electric rail_fast ship" speed="6.46" length="5.05" shape="1158.57,2284.94 1156.21,2285.68 1154.20,2285.51 1153.73,2285.20"/>
    </edge>
    <edge id=":1702511493_5" function="internal">
        <lane id=":1702511493_5_0" index="0" disallow="tram rail_urban rail rail_electric rail_fast ship" speed="6.46" length="3.83" shape="1153.73,2285.20 1152.52,2284.42 1151.20,2282.43"/>
    </edge>
    <edge id=":1702511493_2" function="internal">
        <lane id=":1702511493_2_0" index="0" disallow="tram rail_urban rail rail_electric rail_fast ship" speed="5.46" length="6.07" shape="1146.53,2288.82 1147.92,2287.91 1148.67,2286.77 1148.80,2285.40 1148.30,2283.80"/>
        <lane id=":1702511493_2_1" index="1" disallow="tram rail_urban rail rail_electric rail_fast ship" speed="7.18" length="11.25" shape="1147.89,2291.72 1150.46,2290.03 1151.87,2287.92 1152.11,2285.39 1151.20,2282.43"/>
    </edge>
    <edge id=":1702511493_4" function="internal">